
Actelion Java MolfileCreator 1.0

  9  9  0  0  1  0  0  0  0  0999 V2000
    1.7321   -0.5000    0.0000 C   0  0  0  0  0  0  0  0  0  0  0  0
   -2.5981   -2.0000    0.0000 C   0  0  0  0  0  0  0  0  0  0  0  0
    0.8660    0.0000    0.0000 C   0  0  0  0  0  0  0  0  0  0  0  0
   -0.8660   -2.0000    0.0000 C   0  0  0  0  0  0  0  0  0  0  0  0
   -1.7321   -0.5000    0.0000 C   0  0  0  0  0  0  0  0  0  0  0  0
   -0.0000   -1.5000    0.0000 C   0  0  0  0  0  0  0  0  0  0  0  0
   -0.8660    0.0000    0.0000 C   0  0  0  0  0  0  0  0  0  0  0  0
   -1.7321   -1.5000    0.0000 C   0  0  0  0  0  0  0  0  0  0  0  0
    0.0000   -0.5000    0.0000 C   0  0  0  0  0  0  0  0  0  0  0  0
  1  3  1  0  0  0  0
  3  9  2  0  0  0  0
  9  6  1  0  0  0  0
  6  4  1  0  0  0  0
  4  8  1  0  0  0  0
  8  2  1  1  0  0  0
  8  5  1  0  0  0  0
  5  7  1  0  0  0  0
  7  9  1  0  0  0  0
M  END
